/*--------------------------------*- C++ -*----------------------------------*\
  =========                 |
  \\      /  F ield         | OpenFOAM: The Open Source CFD Toolbox
   \\    /   O peration     | Website:  https://openfoam.org
    \\  /    A nd           | Version:  7
     \\/     M anipulation  |
\*---------------------------------------------------------------------------*/
FoamFile
{
    version     2.0;
    format      ascii;
    class       dictionary;
    object      fvSchemes;
}
// * * * * * * * * * * * * * * * * * * * * * * * * * * * * * * * * * * * * * //

ddtSchemes
{
    //default         Euler;
    default        backward;
}

gradSchemes
{
    default         Gauss linear;
    grad(U.air)     cellMDLimited leastSquares 1;
    //grad(U.air)     cellLimited Gauss linear 1; 
}

divSchemes
{
    default         none;

    div(alphaPhi.air,U.air)      Gauss LUST grad(U.air);
    div(((alpha.air*nuEff.air)*dev2(T(grad(U.air))))) Gauss linear;
}

laplacianSchemes
{
    default         Gauss linear corrected;
    // default         Gauss linear limited corrected 0.33; 
}

interpolationSchemes
{
    default         linear;
}

snGradSchemes
{
    default         corrected;
}

wallDist
{
    method meshWave;
}

// ************************************************************************* //
