/*--------------------------------*- C++ -*----------------------------------*\
  =========                 |
  \\      /  F ield         | OpenFOAM: The Open Source CFD Toolbox
   \\    /   O peration     | Website:  https://openfoam.org
    \\  /    A nd           | Version:  7
     \\/     M anipulation  |
\*---------------------------------------------------------------------------*/
FoamFile
{
    version     2.0;
    format      ascii;
    class       dictionary;
    location    "system";
    object      controlDict;
}
// * * * * * * * * * * * * * * * * * * * * * * * * * * * * * * * * * * * * * //

application     simpleFoam;

startFrom       latestTime;

startTime       0;

stopAt          endTime;

endTime         4.0;

deltaT          0.01;    //recommend time step is between 0.01 to 0.001, 

writeControl    timeStep;

writeInterval   100;

purgeWrite      0;

writeFormat     ascii;

writePrecision  6;

writeCompression off;

timeFormat      general;

timePrecision   6;

runTimeModifiable true;

functions
{
    #includeFunc residuals
    
    
    probes
    {
        type            probes;
        libs            ("libfieldFunctionObjects.so");
        enabled         true;
        writeControl    timeStep;
        writeInterval   1;
        
        probeLocations
        (
            (0  0  20e-3)
        );
	
        fields
        (
            U p
        );
    }
    
    outletFlowRate1
    {
        type            surfaceFieldValue;
        libs            ("libfieldFunctionObjects.so");
        
        log             yes;
        writeFields     no;
        regionType      patch;
        name            outlet1;
        operation       areaIntegrate;

        writeControl    timeStep;
        writeInterval   1;
    
        fields
        (
            phi
        );
    }
    
    outletFlowRate2
    {
        type            surfaceFieldValue;
        libs            ("libfieldFunctionObjects.so");
        
        log             yes;
        writeFields     no;
        regionType      patch;
        name            outlet2;
        operation       areaIntegrate;

        writeControl    timeStep;
        writeInterval   1;
    
        fields
        (
            phi
        );
    }
}

// ************************************************************************* //
