/*--------------------------------*- C++ -*----------------------------------*\
| =========                 |                                                 |
| \\      /  F ield         | OpenFOAM: The Open Source CFD Toolbox           |
|  \\    /   O peration     | Version:  5                                     |
|   \\  /    A nd           | Web:      www.OpenFOAM.org                      |
|    \\/     M anipulation  |                                                 |
\*---------------------------------------------------------------------------*/
FoamFile
{
    version     2.0;
    format      ascii;
    class       dictionary;
    object      fvSolution;
}
// * * * * * * * * * * * * * * * * * * * * * * * * * * * * * * * * * * * * * //

solvers
{
    "pcorr.*"
    {
        solver          GAMG;
        tolerance       1e-2;
        relTol          0;
        smoother        DICGaussSeidel;
        cacheAgglomeration no;
        maxIter         50;
    }

    p
    {
        $pcorr;
        tolerance       1e-5;
        relTol          0.01;
    }

    pFinal
    {
        $p;
        tolerance       1e-6;
        relTol          0;
    }

    "(U|k|epsilon)"
    {
        solver          smoothSolver;
        smoother        symGaussSeidel;
        tolerance       1e-6;
        relTol          0.1;
    }

    "(U|k|epsilon)Final"
    {
        solver          smoothSolver;
        smoother        symGaussSeidel;
        tolerance       1e-6;
        relTol          0;
    }

    cellDisplacement
    {
        solver          PCG;
        preconditioner  DIC;
        tolerance       1e-08;
        relTol          0;
    }
    cellDisplacementFinal
    {
        solver          PCG;
        preconditioner  DIC;
        tolerance       1e-08;
        relTol          0;
    }
}

PIMPLE
{
    correctPhi          no;
    nOuterCorrectors    1;
    nCorrectors         3;
    nNonOrthogonalCorrectors 0;
    pRefCell            0;
    pRefValue           0;

    /*outerCorrectorResidualControl
    {
        "(U|k|epsilon|p)"
        {
            relTol          0;
            tolerance       0.01;
        }
    }*/
}

relaxationFactors
{
    fields
    {
        p               0.4;
        pFinal          1.0;
    }
    
    equations
    {
        "(U|k|omega)"   0.6;
        "(U|k|omega)Final" 1.0;
    }
}



// ************************************************************************* //
