/*--------------------------------*- C++ -*----------------------------------*\
  =========                 |
  \\      /  F ield         | OpenFOAM: The Open Source CFD Toolbox
   \\    /   O peration     | Website:  https://openfoam.org
    \\  /    A nd           | Version:  7
     \\/     M anipulation  |
\*---------------------------------------------------------------------------*/
FoamFile
{
    version     2.0;
    format      ascii;
    class       volScalarField;
    location    "0";
    object      k;
}
// * * * * * * * * * * * * * * * * * * * * * * * * * * * * * * * * * * * * * //

dimensions      [0 2 -2 0 0 0 0];

internalField   uniform 0.01707;

boundaryField
{
    inlet
    {
        type            fixedValue;
        value           uniform 0.01707;
    }
    outlet
    {
        type            inletOutlet;
        inletValue      uniform 0.01707;
        value           uniform 0;
    }
    walls
    {
        type            slip;
    }
    cylinder
    {
        type            kqRWallFunction;
        value           uniform 0.01707;
    }
    frontAndBack
    {
        type            empty;
    }
}


// ************************************************************************* //
