/*--------------------------------*- C++ -*----------------------------------*\
  =========                 |
  \\      /  F ield         | OpenFOAM: The Open Source CFD Toolbox
   \\    /   O peration     | Website:  https://openfoam.org
    \\  /    A nd           | Version:  7
     \\/     M anipulation  |
\*---------------------------------------------------------------------------*/
FoamFile
{
    version     2.0;
    format      ascii;
    class       dictionary;
    location    "system";
    object      fvSolution;
}
// * * * * * * * * * * * * * * * * * * * * * * * * * * * * * * * * * * * * * //

solvers
{
    "(p|kinematicCloud:theta)"
    {        
        solver          GAMG;
        smoother        GaussSeidel;
        tolerance       1e-06;
        relTol          1e-2;
        maxIter         100;
    }

    "(p|kinematicCloud:theta)Final"
    {
        solver          GAMG;
        smoother        GaussSeidel;
        tolerance       1e-06;
        relTol          0;
        minIter         1;
        maxIter         100;        
    }
    
    "(U.air|k.air|epsilon.air)"
    {
        solver          smoothSolver;
        smoother        symGaussSeidel;
        tolerance       1e-06;
        relTol          0.1;
    }

    "(U.air|k.air|epsilon.air)Final"
    {
        solver          smoothSolver;
        smoother        symGaussSeidel;
        tolerance       1e-06;
        relTol          0;
    }
}

PIMPLE
{
    //momentumPredictor   off;    // For multiphase and low re condition becasuse of unnecessary?
    nOuterCorrectors    3;
    nCorrectors         2;
    nNonOrthogonalCorrectors 1;
    pRefCell            0;
    pRefValue           0;
    // turbOnFinalIterOnly no;
    
}

relaxationFactors
{
    equations
    {
        ".*"   1;
    }
}


// ************************************************************************* //
